C1H4O1_index-0
     RDKit          3D

  0  0  0  0  0  0  0  0  0  0999 V3000
M  V30 BEGIN CTAB
M  V30 COUNTS 6 5 0 0 0
M  V30 BEGIN ATOM
M  V30 1 C -0.370300 -0.019800 -0.016200 0
M  V30 2 O 0.956900 -0.312200 -0.412900 0
M  V30 3 H -0.522900 -0.344100 1.016100 0
M  V30 4 H -0.548800 1.054900 -0.101900 0
M  V30 5 H -1.062800 -0.555200 -0.670000 0
M  V30 6 H 1.548000 0.176500 0.184800 0
M  V30 END ATOM
M  V30 BEGIN BOND
M  V30 1 1 1 3  4.0720415115356445
M  V30 2 1 2 1  4.082521915435791
M  V30 3 1 2 6  4.541375637054443
M  V30 4 1 4 1  
M  V30 5 1 5 1  
M  V30 END BOND
M  V30 END CTAB
M  END
$$$$
C1H3_index-1
     RDKit          3D

  0  0  0  0  0  0  0  0  0  0999 V3000
M  V30 BEGIN CTAB
M  V30 COUNTS 4 3 0 0 0
M  V30 BEGIN ATOM
M  V30 1 C -0.000000 0.000000 -0.000000 0 RAD=2 VAL=3
M  V30 2 H 1.072600 -0.145900 0.016000 0
M  V30 3 H -0.662800 -0.855900 0.005900 0
M  V30 4 H -0.409700 1.001800 -0.022000 0
M  V30 END ATOM
M  V30 BEGIN BOND
M  V30 1 1 1 3  4.299859523773193
M  V30 2 1 1 2  
M  V30 3 1 4 1  
M  V30 END BOND
M  V30 END CTAB
M  END
$$$$
H1O1_index-2
     RDKit          3D

  0  0  0  0  0  0  0  0  0  0999 V3000
M  V30 BEGIN CTAB
M  V30 COUNTS 2 1 0 0 0
M  V30 BEGIN ATOM
M  V30 1 O 0.488900 0.000000 0.000000 0 RAD=2 VAL=1
M  V30 2 H -0.488900 0.000000 0.000000 0
M  V30 END ATOM
M  V30 BEGIN BOND
M  V30 1 1 1 2  4.413845062255859
M  V30 END BOND
M  V30 END CTAB
M  END
$$$$
C1H3O1_index-3
     RDKit          3D

  0  0  0  0  0  0  0  0  0  0999 V3000
M  V30 BEGIN CTAB
M  V30 COUNTS 5 4 0 0 0
M  V30 BEGIN ATOM
M  V30 1 C -0.451300 -0.096600 -0.002500 0 RAD=2 VAL=3
M  V30 2 O 0.866700 -0.275200 0.254300 0
M  V30 3 H -1.095200 -0.885900 0.346900 0
M  V30 4 H -0.737500 0.800200 -0.522900 0
M  V30 5 H 1.417300 0.457500 -0.075800 0
M  V30 END ATOM
M  V30 BEGIN BOND
M  V30 1 1 1 2  4.052990913391113
M  V30 2 1 1 3  4.085543155670166
M  V30 3 1 4 1  
M  V30 4 1 5 2  3.9824180603027344
M  V30 END BOND
M  V30 END CTAB
M  END
$$$$
H1_index-4
     RDKit          3D

  0  0  0  0  0  0  0  0  0  0999 V3000
M  V30 BEGIN CTAB
M  V30 COUNTS 1 0 0 0 0
M  V30 BEGIN ATOM
M  V30 1 H 0.000000 0.000000 0.000000 0 VAL=-1
M  V30 END ATOM
M  V30 END CTAB
M  END
$$$$
